
**** 09/27/18 13:03:53 ******* PSpice Lite (March 2016) ******* ID# 10813 ****

 inverterende versterker


 ****     CIRCUIT DESCRIPTION


******************************************************************************




R1      1       2       10k
R2      2       5       10k
Vcc     3       0       DC      -15
Vee     4       0       DC      15
Vin     1       0       AC      0.1
X1      0       2       3       4       5       TL072


* TL072 OPERATIONAL AMPLIFIER "MACROMODEL" SUBCIRCUIT
* CREATED USING PARTS RELEASE 4.01 ON 06/16/89 AT 13:08
* (REV N/A)      SUPPLY VOLTAGE: +/-15V
* CONNECTIONS:   NON-INVERTING INPUT
*                | INVERTING INPUT
*                | | POSITIVE POWER SUPPLY
*                | | | NEGATIVE POWER SUPPLY
*                | | | | OUTPUT
*                | | | | |
.SUBCKT TL072    1 2 3 4 5
*
  C1   11 12 3.498E-12
  C2    6  7 15.00E-12
  DC    5 53 DX
  DE   54  5 DX
  DLP  90 91 DX
  DLN  92 90 DX
  DP    4  3 DX
  EGND 99  0 POLY(2) (3,0) (4,0) 0 .5 .5
  FB    7 99 POLY(5) VB VC VE VLP VLN 0 4.715E6 -5E6 5E6 5E6 -5E6
  GA    6  0 11 12 282.8E-6
  GCM   0  6 10 99 8.942E-9
  ISS   3 10 DC 195.0E-6
  HLIM 90  0 VLIM 1K
  J1   11  2 10 JX
  J2   12  1 10 JX
  R2    6  9 100.0E3
  RD1   4 11 3.536E3
  RD2   4 12 3.536E3
  RO1   8  5 150
  RO2   7 99 150
  RP    3  4 2.143E3
  RSS  10 99 1.026E6
  VB    9  0 DC 0
  VC    3 53 DC 2.200
  VE   54  4 DC 2.200
  VLIM  7  8 DC 0
  VLP  91  0 DC 25
  VLN   0 92 DC 25
.MODEL DX D(IS=800.0E-18)
.MODEL JX PJF(IS=15.00E-12 BETA=270.1E-6 VTO=-1)
.ENDS

.AC DEC 1000    3       300k
.PROBE
.END

**** 09/27/18 13:03:53 ******* PSpice Lite (March 2016) ******* ID# 10813 ****

 inverterende versterker


 ****     Diode MODEL PARAMETERS


******************************************************************************




               X1.DX           
          IS  800.000000E-18 


**** 09/27/18 13:03:53 ******* PSpice Lite (March 2016) ******* ID# 10813 ****

 inverterende versterker


 ****     Junction FET MODEL PARAMETERS


******************************************************************************




               X1.JX           
               PJF             
         VTO   -1            
        BETA  270.100000E-06 
          IS   15.000000E-12 


ERROR -- Convergence problem in bias point calculation


  Last node voltages tried were:

 NODE   VOLTAGE     NODE   VOLTAGE     NODE   VOLTAGE     NODE   VOLTAGE


(    1)    0.0000  (    2)     .1094  (    3)    -.7473  (    4)     .7473      

(    5) 62.39E-09  ( X1.6)    -.1002  ( X1.7)    -.0015  ( X1.8)    -.0015      

( X1.9)    0.0000  (X1.10)     .3971  (X1.11)     .4753  (X1.12)     .4042      

(X1.53)    -.8569  (X1.54)     .8569  (X1.90)-498.1E-06  (X1.91)    1.2455      

(X1.92)   -1.2455  (X1.99)    0.0000  


  These supply currents failed to converge:

    I(Vcc)                    =    10.00GA  \    10.00GA
    I(Vee)                    =   -10.00GA  \   -10.00GA

Try running with .OPTION STEPGMIN

**** Interrupt ****
