
**** 04/02/19 11:42:59 ******* PSpice Lite (March 2016) ******* ID# 10813 ****

 butt


 ****     CIRCUIT DESCRIPTION


******************************************************************************



V1      1       0       AC      1
R0      1       2       50
L2      2       3       100u
L4      3       4       187u
L6      4       5       187u
L8      5       6       100u
R10     6       0       50
C1      2       0       14p
C3      3       0       61p
C5      4       0       80p
C7      5       0       61p
C9      6       0       14p
.AC DEC 100     3000000 3000k
------------------------$
ERROR(ORPSIM-16103): Invalid value
.PROBE
.END
