
**** 10/11/18 09:37:21 ******* PSpice Lite (March 2016) ******* ID# 10813 ****

 verschilversterker


 ****     CIRCUIT DESCRIPTION


******************************************************************************



R1      6       1       10k
R2      1       7       100k
R3      7       5       100k
R4      8       2       10k
R5      2       9       100k
R6      9       0       100k
.SUBCKT POT 1 T 2 PARAMS: VALUE=1K SET=0.5
RT 1 T {VALUE*(1-SET)+.001}
RB T 2 {VALUE*SET+.001}
.ENDS
.PARAM SET=.5
.STEP PARAM(SET) 0, 1, .2
Rg  9 T 7 POT PARAMS: R=10K SET=.5      
----------$
ERROR(ORPSIM-16015): Unknown parameter.
Vg      T       0       DC      
--------------------------------$
ERROR(ORPSIM-16492): Missing value
V1      6       0       AC      0.1
V2      8       0       AC      0.2
Vcc     3       0       DC      15
Vee     4       0       DC      -15
X1      1       2       3       4       5       TL072

* TL072 OPERATIONAL AMPLIFIER "MACROMODEL" SUBCIRCUIT
* CREATED USING PARTS RELEASE 4.01 ON 06/16/89 AT 13:08
* (REV N/A)      SUPPLY VOLTAGE: +/-15V
* CONNECTIONS:   NON-INVERTING INPUT
*                | INVERTING INPUT
*                | | POSITIVE POWER SUPPLY
*                | | | NEGATIVE POWER SUPPLY
*                | | | | OUTPUT
*                | | | | |
.SUBCKT TL072    1 2 3 4 5
*
  C1   11 12 3.498E-12
  C2    6  7 15.00E-12
  DC    5 53 DX
  DE   54  5 DX
  DLP  90 91 DX
  DLN  92 90 DX
  DP    4  3 DX
  EGND 99  0 POLY(2) (3,0) (4,0) 0 .5 .5
  FB    7 99 POLY(5) VB VC VE VLP VLN 0 4.715E6 -5E6 5E6 5E6 -5E6
  GA    6  0 11 12 282.8E-6
  GCM   0  6 10 99 8.942E-9
  ISS   3 10 DC 195.0E-6
  HLIM 90  0 VLIM 1K
  J1   11  2 10 JX
  J2   12  1 10 JX
  R2    6  9 100.0E3
  RD1   4 11 3.536E3
  RD2   4 12 3.536E3
  RO1   8  5 150
  RO2   7 99 150
  RP    3  4 2.143E3
  RSS  10 99 1.026E6
  VB    9  0 DC 0
  VC    3 53 DC 2.200
  VE   54  4 DC 2.200
  VLIM  7  8 DC 0
  VLP  91  0 DC 25
  VLN   0 92 DC 25
.MODEL DX D(IS=800.0E-18)
.MODEL JX PJF(IS=15.00E-12 BETA=270.1E-6 VTO=-1)
.ENDS

.DC LIN Vg      0       1       0.2
.AC DEC 1000    3       300k
.PROBE
.END
